MODEL 1
REMARK VINA RESULT:      -6.9      0.000      0.000
REMARK  7 active torsions:
REMARK  status: ('A' for Active; 'I' for Inactive)
REMARK    1  A    between atoms: O01_1  and  C_9 
REMARK    2  A    between atoms: O_3  and  C_10 
REMARK    3  A    between atoms: O_3  and  C_14 
REMARK    4  A    between atoms: N_7  and  C_8 
REMARK       I    between atoms: N_7  and  C_18 
REMARK    5  A    between atoms: C_13  and  C_17 
REMARK    6  A    between atoms: C_14  and  C_15 
REMARK    7  A    between atoms: C_14  and  C_16 
ROOT
HETATM    1  C   UNK     0      23.130 -19.692 -22.669  0.00  0.00     0.146 C 
HETATM    2  C   UNK     0      22.195 -18.646 -22.033  0.00  0.00     0.148 C 
HETATM    3  C   UNK     0      24.606 -19.263 -22.550  0.00  0.00     0.170 C 
HETATM    4  C   UNK     0      22.548 -18.428 -20.552  0.00  0.00     0.079 C 
HETATM    5  C   UNK     0      24.953 -18.645 -21.224  0.00  0.00     0.021 C 
HETATM    6  C   UNK     0      24.022 -18.284 -20.329  0.00  0.00     0.020 C 
ENDROOT
BRANCH   3   7
HETATM    7  O   UNK     0      25.418 -20.421 -22.749  0.00  0.00    -0.375 OA
BRANCH   7   8
HETATM    8  C   UNK     0      26.504 -20.451 -21.836  0.00  0.00     0.121 C 
BRANCH   8   9
HETATM    9  C   UNK     0      27.784 -20.069 -22.588  0.00  0.00     0.027 C 
HETATM   10  C   UNK     0      28.672 -19.132 -21.780  0.00  0.00     0.007 C 
ENDBRANCH   8   9
BRANCH   8  11
HETATM   11  C   UNK     0      26.632 -21.852 -21.224  0.00  0.00     0.027 C 
HETATM   12  C   UNK     0      26.133 -21.918 -19.787  0.00  0.00     0.007 C 
ENDBRANCH   8  11
ENDBRANCH   7   8
ENDBRANCH   3   7
BRANCH   1  13
HETATM   13  N   UNK     0      22.794 -19.909 -24.063  0.00  0.00    -0.351 N 
HETATM   14  C   UNK     0      21.889 -20.868 -24.478  0.00  0.00     0.214 C 
HETATM   15  O   UNK     0      21.269 -21.640 -23.752  0.00  0.00    -0.274 OA
HETATM   16  C   UNK     0      21.708 -20.866 -25.973  0.00  0.00     0.117 C 
HETATM   17  H   UNK     0      23.290 -19.365 -24.763  0.00  0.00     0.163 HD
ENDBRANCH   1  13
BRANCH   2  18
HETATM   18  O01 UNK     0      20.826 -19.048 -22.128  0.00  0.00    -0.393 OA
HETATM   19  H01 UNK     0      20.385 -18.885 -21.292  0.00  0.00     0.210 HD
ENDBRANCH   2  18
BRANCH   6  20
HETATM   20  C   UNK     0      24.483 -17.697 -19.067  0.00  0.00     0.205 C 
HETATM   21  O   UNK     0      24.606 -16.361 -19.207  0.00  0.00    -0.644 OA
HETATM   22  O   UNK     0      24.715 -18.334 -18.055  0.00  0.00    -0.644 OA
ENDBRANCH   6  20
TORSDOF 7
ENDMDL
MODEL 2
REMARK VINA RESULT:      -6.9      2.052      4.858
REMARK  7 active torsions:
REMARK  status: ('A' for Active; 'I' for Inactive)
REMARK    1  A    between atoms: O01_1  and  C_9 
REMARK    2  A    between atoms: O_3  and  C_10 
REMARK    3  A    between atoms: O_3  and  C_14 
REMARK    4  A    between atoms: N_7  and  C_8 
REMARK       I    between atoms: N_7  and  C_18 
REMARK    5  A    between atoms: C_13  and  C_17 
REMARK    6  A    between atoms: C_14  and  C_15 
REMARK    7  A    between atoms: C_14  and  C_16 
ROOT
HETATM    1  C   UNK     0      24.400 -18.385 -21.815  0.00  0.00     0.146 C 
HETATM    2  C   UNK     0      22.867 -18.364 -21.671  0.00  0.00     0.148 C 
HETATM    3  C   UNK     0      24.941 -19.829 -21.791  0.00  0.00     0.170 C 
HETATM    4  C   UNK     0      22.202 -19.179 -22.793  0.00  0.00     0.079 C 
HETATM    5  C   UNK     0      24.096 -20.805 -22.561  0.00  0.00     0.021 C 
HETATM    6  C   UNK     0      22.872 -20.501 -23.015  0.00  0.00     0.020 C 
ENDROOT
BRANCH   3   7
HETATM    7  O   UNK     0      26.257 -19.815 -22.348  0.00  0.00    -0.375 OA
BRANCH   7   8
HETATM    8  C   UNK     0      27.153 -20.593 -21.570  0.00  0.00     0.121 C 
BRANCH   8   9
HETATM    9  C   UNK     0      26.519 -20.836 -20.196  0.00  0.00     0.027 C 
HETATM   10  C   UNK     0      26.432 -22.318 -19.853  0.00  0.00     0.007 C 
ENDBRANCH   8   9
BRANCH   8  11
HETATM   11  C   UNK     0      28.492 -19.859 -21.428  0.00  0.00     0.027 C 
HETATM   12  C   UNK     0      28.401 -18.386 -21.802  0.00  0.00     0.007 C 
ENDBRANCH   8  11
ENDBRANCH   7   8
ENDBRANCH   3   7
BRANCH   1  13
HETATM   13  N   UNK     0      25.031 -17.608 -20.766  0.00  0.00    -0.351 N 
HETATM   14  C   UNK     0      25.476 -16.312 -20.952  0.00  0.00     0.214 C 
HETATM   15  O   UNK     0      25.402 -15.665 -21.992  0.00  0.00    -0.274 OA
HETATM   16  C   UNK     0      26.068 -15.732 -19.696  0.00  0.00     0.117 C 
HETATM   17  H   UNK     0      25.199 -18.062 -19.873  0.00  0.00     0.163 HD
ENDBRANCH   1  13
BRANCH   2  18
HETATM   18  O01 UNK     0      22.361 -17.027 -21.709  0.00  0.00    -0.393 OA
HETATM   19  H01 UNK     0      21.472 -17.031 -22.070  0.00  0.00     0.210 HD
ENDBRANCH   2  18
BRANCH   6  20
HETATM   20  C   UNK     0      22.145 -21.535 -23.758  0.00  0.00     0.205 C 
HETATM   21  O   UNK     0      22.667 -22.746 -23.477  0.00  0.00    -0.644 OA
HETATM   22  O   UNK     0      21.213 -21.316 -24.511  0.00  0.00    -0.644 OA
ENDBRANCH   6  20
TORSDOF 7
ENDMDL
MODEL 3
REMARK VINA RESULT:      -6.4      2.122      5.684
REMARK  7 active torsions:
REMARK  status: ('A' for Active; 'I' for Inactive)
REMARK    1  A    between atoms: O01_1  and  C_9 
REMARK    2  A    between atoms: O_3  and  C_10 
REMARK    3  A    between atoms: O_3  and  C_14 
REMARK    4  A    between atoms: N_7  and  C_8 
REMARK       I    between atoms: N_7  and  C_18 
REMARK    5  A    between atoms: C_13  and  C_17 
REMARK    6  A    between atoms: C_14  and  C_15 
REMARK    7  A    between atoms: C_14  and  C_16 
ROOT
HETATM    1  C   UNK     0      25.953 -19.994 -22.294  0.00  0.00     0.146 C 
HETATM    2  C   UNK     0      25.972 -20.949 -23.503  0.00  0.00     0.148 C 
HETATM    3  C   UNK     0      24.786 -18.990 -22.399  0.00  0.00     0.170 C 
HETATM    4  C   UNK     0      24.644 -21.716 -23.614  0.00  0.00     0.079 C 
HETATM    5  C   UNK     0      23.507 -19.598 -22.904  0.00  0.00     0.021 C 
HETATM    6  C   UNK     0      23.452 -20.826 -23.438  0.00  0.00     0.020 C 
ENDROOT
BRANCH   3   7
HETATM    7  O   UNK     0      24.558 -18.444 -21.099  0.00  0.00    -0.375 OA
BRANCH   7   8
HETATM    8  C   UNK     0      24.891 -17.065 -21.054  0.00  0.00     0.121 C 
BRANCH   8   9
HETATM    9  C   UNK     0      25.756 -16.815 -19.813  0.00  0.00     0.027 C 
HETATM   10  C   UNK     0      26.361 -15.417 -19.803  0.00  0.00     0.007 C 
ENDBRANCH   8   9
BRANCH   8  11
HETATM   11  C   UNK     0      23.612 -16.221 -21.002  0.00  0.00     0.027 C 
HETATM   12  C   UNK     0      22.614 -16.722 -19.967  0.00  0.00     0.007 C 
ENDBRANCH   8  11
ENDBRANCH   7   8
ENDBRANCH   3   7
BRANCH   1  13
HETATM   13  N   UNK     0      27.207 -19.276 -22.179  0.00  0.00    -0.351 N 
HETATM   14  C   UNK     0      28.237 -19.689 -21.355  0.00  0.00     0.214 C 
HETATM   15  O   UNK     0      28.232 -20.683 -20.634  0.00  0.00    -0.274 OA
HETATM   16  C   UNK     0      29.432 -18.778 -21.442  0.00  0.00     0.117 C 
HETATM   17  H   UNK     0      27.305 -18.403 -22.688  0.00  0.00     0.163 HD
ENDBRANCH   1  13
BRANCH   2  18
HETATM   18  O01 UNK     0      27.044 -21.891 -23.401  0.00  0.00    -0.393 OA
HETATM   19  H01 UNK     0      27.619 -21.645 -22.674  0.00  0.00     0.210 HD
ENDBRANCH   2  18
BRANCH   6  20
HETATM   20  C   UNK     0      22.145 -21.313 -23.891  0.00  0.00     0.205 C 
HETATM   21  O   UNK     0      21.171 -20.523 -23.396  0.00  0.00    -0.644 OA
HETATM   22  O   UNK     0      21.982 -22.286 -24.606  0.00  0.00    -0.644 OA
ENDBRANCH   6  20
TORSDOF 7
ENDMDL
MODEL 4
REMARK VINA RESULT:      -6.2      1.190      2.010
REMARK  7 active torsions:
REMARK  status: ('A' for Active; 'I' for Inactive)
REMARK    1  A    between atoms: O01_1  and  C_9 
REMARK    2  A    between atoms: O_3  and  C_10 
REMARK    3  A    between atoms: O_3  and  C_14 
REMARK    4  A    between atoms: N_7  and  C_8 
REMARK       I    between atoms: N_7  and  C_18 
REMARK    5  A    between atoms: C_13  and  C_17 
REMARK    6  A    between atoms: C_14  and  C_15 
REMARK    7  A    between atoms: C_14  and  C_16 
ROOT
HETATM    1  C   UNK     0      23.534 -19.542 -22.013  0.00  0.00     0.146 C 
HETATM    2  C   UNK     0      23.236 -18.049 -21.776  0.00  0.00     0.148 C 
HETATM    3  C   UNK     0      24.939 -19.917 -21.500  0.00  0.00     0.170 C 
HETATM    4  C   UNK     0      23.346 -17.701 -20.282  0.00  0.00     0.079 C 
HETATM    5  C   UNK     0      25.296 -19.273 -20.189  0.00  0.00     0.021 C 
HETATM    6  C   UNK     0      24.570 -18.286 -19.645  0.00  0.00     0.020 C 
ENDROOT
BRANCH   3   7
HETATM    7  O   UNK     0      24.987 -21.336 -21.347  0.00  0.00    -0.375 OA
BRANCH   7   8
HETATM    8  C   UNK     0      26.155 -21.878 -21.943  0.00  0.00     0.121 C 
BRANCH   8   9
HETATM    9  C   UNK     0      27.230 -22.027 -20.859  0.00  0.00     0.027 C 
HETATM   10  C   UNK     0      27.540 -23.485 -20.548  0.00  0.00     0.007 C 
ENDBRANCH   8   9
BRANCH   8  11
HETATM   11  C   UNK     0      26.643 -20.957 -23.067  0.00  0.00     0.027 C 
HETATM   12  C   UNK     0      28.084 -20.503 -22.876  0.00  0.00     0.007 C 
ENDBRANCH   8  11
ENDBRANCH   7   8
ENDBRANCH   3   7
BRANCH   1  13
HETATM   13  N   UNK     0      23.421 -19.877 -23.419  0.00  0.00    -0.351 N 
HETATM   14  C   UNK     0      22.249 -20.335 -23.992  0.00  0.00     0.214 C 
HETATM   15  O   UNK     0      21.183 -20.516 -23.411  0.00  0.00    -0.274 OA
HETATM   16  C   UNK     0      22.401 -20.584 -25.469  0.00  0.00     0.117 C 
HETATM   17  H   UNK     0      24.258 -19.821 -23.991  0.00  0.00     0.163 HD
ENDBRANCH   1  13
BRANCH   2  18
HETATM   18  O01 UNK     0      21.928 -17.701 -22.237  0.00  0.00    -0.393 OA
HETATM   19  H01 UNK     0      21.451 -18.498 -22.479  0.00  0.00     0.210 HD
ENDBRANCH   2  18
BRANCH   6  20
HETATM   20  C   UNK     0      25.015 -17.741 -18.359  0.00  0.00     0.205 C 
HETATM   21  O   UNK     0      25.002 -18.714 -17.426  0.00  0.00    -0.644 OA
HETATM   22  O   UNK     0      25.345 -16.582 -18.179  0.00  0.00    -0.644 OA
ENDBRANCH   6  20
TORSDOF 7
ENDMDL
MODEL 5
REMARK VINA RESULT:      -5.9      2.014      4.279
REMARK  7 active torsions:
REMARK  status: ('A' for Active; 'I' for Inactive)
REMARK    1  A    between atoms: O01_1  and  C_9 
REMARK    2  A    between atoms: O_3  and  C_10 
REMARK    3  A    between atoms: O_3  and  C_14 
REMARK    4  A    between atoms: N_7  and  C_8 
REMARK       I    between atoms: N_7  and  C_18 
REMARK    5  A    between atoms: C_13  and  C_17 
REMARK    6  A    between atoms: C_14  and  C_15 
REMARK    7  A    between atoms: C_14  and  C_16 
ROOT
HETATM    1  C   UNK     0      24.826 -19.909 -23.620  0.00  0.00     0.146 C 
HETATM    2  C   UNK     0      25.469 -21.286 -23.869  0.00  0.00     0.148 C 
HETATM    3  C   UNK     0      24.098 -19.873 -22.261  0.00  0.00     0.170 C 
HETATM    4  C   UNK     0      26.461 -21.636 -22.747  0.00  0.00     0.079 C 
HETATM    5  C   UNK     0      24.842 -20.572 -21.157  0.00  0.00     0.021 C 
HETATM    6  C   UNK     0      25.907 -21.352 -21.384  0.00  0.00     0.020 C 
ENDROOT
BRANCH   3   7
HETATM    7  O   UNK     0      23.909 -18.504 -21.899  0.00  0.00    -0.375 OA
BRANCH   7   8
HETATM    8  C   UNK     0      24.032 -18.321 -20.498  0.00  0.00     0.121 C 
BRANCH   8   9
HETATM    9  C   UNK     0      22.683 -17.840 -19.950  0.00  0.00     0.027 C 
HETATM   10  C   UNK     0      22.536 -16.326 -20.021  0.00  0.00     0.007 C 
ENDBRANCH   8   9
BRANCH   8  11
HETATM   11  C   UNK     0      25.134 -17.297 -20.200  0.00  0.00     0.027 C 
HETATM   12  C   UNK     0      25.892 -16.865 -21.448  0.00  0.00     0.007 C 
ENDBRANCH   8  11
ENDBRANCH   7   8
ENDBRANCH   3   7
BRANCH   1  13
HETATM   13  N   UNK     0      23.899 -19.569 -24.681  0.00  0.00    -0.351 N 
HETATM   14  C   UNK     0      22.843 -20.383 -25.048  0.00  0.00     0.214 C 
HETATM   15  O   UNK     0      22.557 -21.466 -24.544  0.00  0.00    -0.274 OA
HETATM   16  C   UNK     0      22.023 -19.783 -26.159  0.00  0.00     0.117 C 
HETATM   17  H   UNK     0      24.070 -18.719 -25.210  0.00  0.00     0.163 HD
ENDBRANCH   1  13
BRANCH   2  18
HETATM   18  O01 UNK     0      26.158 -21.318 -25.122  0.00  0.00    -0.393 OA
HETATM   19  H01 UNK     0      27.103 -21.249 -24.970  0.00  0.00     0.210 HD
ENDBRANCH   2  18
BRANCH   6  20
HETATM   20  C   UNK     0      26.553 -21.976 -20.225  0.00  0.00     0.205 C 
HETATM   21  O   UNK     0      27.790 -21.464 -20.066  0.00  0.00    -0.644 OA
HETATM   22  O   UNK     0      26.036 -22.826 -19.522  0.00  0.00    -0.644 OA
ENDBRANCH   6  20
TORSDOF 7
ENDMDL
MODEL 6
REMARK VINA RESULT:      -5.7      2.299      4.657
REMARK  7 active torsions:
REMARK  status: ('A' for Active; 'I' for Inactive)
REMARK    1  A    between atoms: O01_1  and  C_9 
REMARK    2  A    between atoms: O_3  and  C_10 
REMARK    3  A    between atoms: O_3  and  C_14 
REMARK    4  A    between atoms: N_7  and  C_8 
REMARK       I    between atoms: N_7  and  C_18 
REMARK    5  A    between atoms: C_13  and  C_17 
REMARK    6  A    between atoms: C_14  and  C_15 
REMARK    7  A    between atoms: C_14  and  C_16 
ROOT
HETATM    1  C   UNK     0      25.198 -19.823 -23.244  0.00  0.00     0.146 C 
HETATM    2  C   UNK     0      26.259 -20.784 -23.811  0.00  0.00     0.148 C 
HETATM    3  C   UNK     0      25.575 -19.352 -21.825  0.00  0.00     0.170 C 
HETATM    4  C   UNK     0      27.642 -20.111 -23.845  0.00  0.00     0.079 C 
HETATM    5  C   UNK     0      27.038 -19.048 -21.657  0.00  0.00     0.021 C 
HETATM    6  C   UNK     0      27.957 -19.384 -22.574  0.00  0.00     0.020 C 
ENDROOT
BRANCH   3   7
HETATM    7  O   UNK     0      24.821 -18.173 -21.537  0.00  0.00    -0.375 OA
BRANCH   7   8
HETATM    8  C   UNK     0      25.213 -17.601 -20.299  0.00  0.00     0.121 C 
BRANCH   8   9
HETATM    9  C   UNK     0      24.201 -18.022 -19.227  0.00  0.00     0.027 C 
HETATM   10  C   UNK     0      24.875 -18.413 -17.918  0.00  0.00     0.007 C 
ENDBRANCH   8   9
BRANCH   8  11
HETATM   11  C   UNK     0      25.267 -16.074 -20.425  0.00  0.00     0.027 C 
HETATM   12  C   UNK     0      26.520 -15.473 -19.802  0.00  0.00     0.007 C 
ENDBRANCH   8  11
ENDBRANCH   7   8
ENDBRANCH   3   7
BRANCH   1  13
HETATM   13  N   UNK     0      23.890 -20.448 -23.221  0.00  0.00    -0.351 N 
HETATM   14  C   UNK     0      23.015 -20.405 -24.291  0.00  0.00     0.214 C 
HETATM   15  O   UNK     0      23.217 -19.850 -25.367  0.00  0.00    -0.274 OA
HETATM   16  C   UNK     0      21.740 -21.154 -24.010  0.00  0.00     0.117 C 
HETATM   17  H   UNK     0      23.589 -20.890 -22.357  0.00  0.00     0.163 HD
ENDBRANCH   1  13
BRANCH   2  18
HETATM   18  O01 UNK     0      25.920 -21.210 -25.133  0.00  0.00    -0.393 OA
HETATM   19  H01 UNK     0      25.038 -20.904 -25.352  0.00  0.00     0.210 HD
ENDBRANCH   2  18
BRANCH   6  20
HETATM   20  C   UNK     0      29.353 -19.029 -22.300  0.00  0.00     0.205 C 
HETATM   21  O   UNK     0      30.002 -18.816 -23.463  0.00  0.00    -0.644 OA
HETATM   22  O   UNK     0      29.836 -18.944 -21.185  0.00  0.00    -0.644 OA
ENDBRANCH   6  20
TORSDOF 7
ENDMDL
MODEL 7
REMARK VINA RESULT:      -5.5      2.507      4.712
REMARK  7 active torsions:
REMARK  status: ('A' for Active; 'I' for Inactive)
REMARK    1  A    between atoms: O01_1  and  C_9 
REMARK    2  A    between atoms: O_3  and  C_10 
REMARK    3  A    between atoms: O_3  and  C_14 
REMARK    4  A    between atoms: N_7  and  C_8 
REMARK       I    between atoms: N_7  and  C_18 
REMARK    5  A    between atoms: C_13  and  C_17 
REMARK    6  A    between atoms: C_14  and  C_15 
REMARK    7  A    between atoms: C_14  and  C_16 
ROOT
HETATM    1  C   UNK     0      25.739 -20.668 -23.930  0.00  0.00     0.146 C 
HETATM    2  C   UNK     0      26.575 -21.929 -23.641  0.00  0.00     0.148 C 
HETATM    3  C   UNK     0      24.500 -20.601 -23.014  0.00  0.00     0.170 C 
HETATM    4  C   UNK     0      27.021 -21.963 -22.170  0.00  0.00     0.079 C 
HETATM    5  C   UNK     0      24.771 -21.021 -21.596  0.00  0.00     0.021 C 
HETATM    6  C   UNK     0      25.910 -21.622 -21.225  0.00  0.00     0.020 C 
ENDROOT
BRANCH   3   7
HETATM    7  O   UNK     0      24.024 -19.253 -23.016  0.00  0.00    -0.375 OA
BRANCH   7   8
HETATM    8  C   UNK     0      24.255 -18.625 -21.765  0.00  0.00     0.121 C 
BRANCH   8   9
HETATM    9  C   UNK     0      22.946 -17.980 -21.295  0.00  0.00     0.027 C 
HETATM   10  C   UNK     0      22.894 -17.812 -19.782  0.00  0.00     0.007 C 
ENDBRANCH   8   9
BRANCH   8  11
HETATM   11  C   UNK     0      25.358 -17.569 -21.908  0.00  0.00     0.027 C 
HETATM   12  C   UNK     0      26.541 -17.821 -20.983  0.00  0.00     0.007 C 
ENDBRANCH   8  11
ENDBRANCH   7   8
ENDBRANCH   3   7
BRANCH   1  13
HETATM   13  N   UNK     0      25.325 -20.626 -25.318  0.00  0.00    -0.351 N 
HETATM   14  C   UNK     0      26.053 -19.983 -26.302  0.00  0.00     0.214 C 
HETATM   15  O   UNK     0      27.111 -19.381 -26.141  0.00  0.00    -0.274 OA
HETATM   16  C   UNK     0      25.411 -20.113 -27.658  0.00  0.00     0.117 C 
HETATM   17  H   UNK     0      24.432 -21.043 -25.562  0.00  0.00     0.163 HD
ENDBRANCH   1  13
BRANCH   2  18
HETATM   18  O01 UNK     0      27.733 -21.986 -24.478  0.00  0.00    -0.393 OA
HETATM   19  H01 UNK     0      27.622 -21.389 -25.220  0.00  0.00     0.210 HD
ENDBRANCH   2  18
BRANCH   6  20
HETATM   20  C   UNK     0      26.061 -21.980 -19.811  0.00  0.00     0.205 C 
HETATM   21  O   UNK     0      26.137 -20.859 -19.066  0.00  0.00    -0.644 OA
HETATM   22  O   UNK     0      26.109 -23.122 -19.391  0.00  0.00    -0.644 OA
ENDBRANCH   6  20
TORSDOF 7
ENDMDL
MODEL 8
REMARK VINA RESULT:      -5.4      3.146      5.921
REMARK  7 active torsions:
REMARK  status: ('A' for Active; 'I' for Inactive)
REMARK    1  A    between atoms: O01_1  and  C_9 
REMARK    2  A    between atoms: O_3  and  C_10 
REMARK    3  A    between atoms: O_3  and  C_14 
REMARK    4  A    between atoms: N_7  and  C_8 
REMARK       I    between atoms: N_7  and  C_18 
REMARK    5  A    between atoms: C_13  and  C_17 
REMARK    6  A    between atoms: C_14  and  C_15 
REMARK    7  A    between atoms: C_14  and  C_16 
ROOT
HETATM    1  C   UNK     0      26.667 -20.278 -22.989  0.00  0.00     0.146 C 
HETATM    2  C   UNK     0      27.733 -20.775 -23.984  0.00  0.00     0.148 C 
HETATM    3  C   UNK     0      26.740 -18.747 -22.815  0.00  0.00     0.170 C 
HETATM    4  C   UNK     0      27.561 -20.095 -25.353  0.00  0.00     0.079 C 
HETATM    5  C   UNK     0      26.982 -18.003 -24.099  0.00  0.00     0.021 C 
HETATM    6  C   UNK     0      27.340 -18.618 -25.235  0.00  0.00     0.020 C 
ENDROOT
BRANCH   3   7
HETATM    7  O   UNK     0      25.503 -18.309 -22.251  0.00  0.00    -0.375 OA
BRANCH   7   8
HETATM    8  C   UNK     0      25.697 -17.733 -20.970  0.00  0.00     0.121 C 
BRANCH   8   9
HETATM    9  C   UNK     0      24.555 -18.189 -20.053  0.00  0.00     0.027 C 
HETATM   10  C   UNK     0      25.059 -18.677 -18.701  0.00  0.00     0.007 C 
ENDBRANCH   8   9
BRANCH   8  11
HETATM   11  C   UNK     0      25.721 -16.204 -21.084  0.00  0.00     0.027 C 
HETATM   12  C   UNK     0      26.514 -15.540 -19.966  0.00  0.00     0.007 C 
ENDBRANCH   8  11
ENDBRANCH   7   8
ENDBRANCH   3   7
BRANCH   1  13
HETATM   13  N   UNK     0      26.819 -20.925 -21.700  0.00  0.00    -0.351 N 
HETATM   14  C   UNK     0      25.777 -21.558 -21.049  0.00  0.00     0.214 C 
HETATM   15  O   UNK     0      24.623 -21.657 -21.456  0.00  0.00    -0.274 OA
HETATM   16  C   UNK     0      26.212 -22.165 -19.741  0.00  0.00     0.117 C 
HETATM   17  H   UNK     0      27.720 -20.858 -21.237  0.00  0.00     0.163 HD
ENDBRANCH   1  13
BRANCH   2  18
HETATM   18  O01 UNK     0      27.658 -22.193 -24.159  0.00  0.00    -0.393 OA
HETATM   19  H01 UNK     0      26.984 -22.552 -23.579  0.00  0.00     0.210 HD
ENDBRANCH   2  18
BRANCH   6  20
HETATM   20  C   UNK     0      27.542 -17.785 -26.425  0.00  0.00     0.205 C 
HETATM   21  O   UNK     0      27.205 -18.483 -27.528  0.00  0.00    -0.644 OA
HETATM   22  O   UNK     0      27.953 -16.639 -26.402  0.00  0.00    -0.644 OA
ENDBRANCH   6  20
TORSDOF 7
ENDMDL
MODEL 9
REMARK VINA RESULT:      -5.4      2.140      2.852
REMARK  7 active torsions:
REMARK  status: ('A' for Active; 'I' for Inactive)
REMARK    1  A    between atoms: O01_1  and  C_9 
REMARK    2  A    between atoms: O_3  and  C_10 
REMARK    3  A    between atoms: O_3  and  C_14 
REMARK    4  A    between atoms: N_7  and  C_8 
REMARK       I    between atoms: N_7  and  C_18 
REMARK    5  A    between atoms: C_13  and  C_17 
REMARK    6  A    between atoms: C_14  and  C_15 
REMARK    7  A    between atoms: C_14  and  C_16 
ROOT
HETATM    1  C   UNK     0      24.395 -19.989 -23.113  0.00  0.00     0.146 C 
HETATM    2  C   UNK     0      24.139 -18.940 -22.014  0.00  0.00     0.148 C 
HETATM    3  C   UNK     0      25.544 -19.548 -24.043  0.00  0.00     0.170 C 
HETATM    4  C   UNK     0      25.409 -18.700 -21.181  0.00  0.00     0.079 C 
HETATM    5  C   UNK     0      26.698 -18.911 -23.321  0.00  0.00     0.021 C 
HETATM    6  C   UNK     0      26.632 -18.544 -22.033  0.00  0.00     0.020 C 
ENDROOT
BRANCH   3   7
HETATM    7  O   UNK     0      26.014 -20.704 -24.740  0.00  0.00    -0.375 OA
BRANCH   7   8
HETATM    8  C   UNK     0      27.187 -21.226 -24.137  0.00  0.00     0.121 C 
BRANCH   8   9
HETATM    9  C   UNK     0      28.175 -21.607 -25.246  0.00  0.00     0.027 C 
HETATM   10  C   UNK     0      28.941 -20.402 -25.777  0.00  0.00     0.007 C 
ENDBRANCH   8   9
BRANCH   8  11
HETATM   11  C   UNK     0      26.834 -22.449 -23.282  0.00  0.00     0.027 C 
HETATM   12  C   UNK     0      27.098 -22.229 -21.799  0.00  0.00     0.007 C 
ENDBRANCH   8  11
ENDBRANCH   7   8
ENDBRANCH   3   7
BRANCH   1  13
HETATM   13  N   UNK     0      23.197 -20.227 -23.894  0.00  0.00    -0.351 N 
HETATM   14  C   UNK     0      22.564 -21.455 -23.946  0.00  0.00     0.214 C 
HETATM   15  O   UNK     0      22.916 -22.475 -23.360  0.00  0.00    -0.274 OA
HETATM   16  C   UNK     0      21.331 -21.420 -24.809  0.00  0.00     0.117 C 
HETATM   17  H   UNK     0      22.844 -19.467 -24.468  0.00  0.00     0.163 HD
ENDBRANCH   1  13
BRANCH   2  18
HETATM   18  O01 UNK     0      23.084 -19.353 -21.140  0.00  0.00    -0.393 OA
HETATM   19  H01 UNK     0      23.444 -19.541 -20.271  0.00  0.00     0.210 HD
ENDBRANCH   2  18
BRANCH   6  20
HETATM   20  C   UNK     0      27.825 -17.937 -21.436  0.00  0.00     0.205 C 
HETATM   21  O   UNK     0      28.757 -18.888 -21.220  0.00  0.00    -0.644 OA
HETATM   22  O   UNK     0      27.941 -16.752 -21.180  0.00  0.00    -0.644 OA
ENDBRANCH   6  20
TORSDOF 7
ENDMDL
MODEL 10
REMARK VINA RESULT:      -5.3      7.954      9.448
REMARK  7 active torsions:
REMARK  status: ('A' for Active; 'I' for Inactive)
REMARK    1  A    between atoms: O01_1  and  C_9 
REMARK    2  A    between atoms: O_3  and  C_10 
REMARK    3  A    between atoms: O_3  and  C_14 
REMARK    4  A    between atoms: N_7  and  C_8 
REMARK       I    between atoms: N_7  and  C_18 
REMARK    5  A    between atoms: C_13  and  C_17 
REMARK    6  A    between atoms: C_14  and  C_15 
REMARK    7  A    between atoms: C_14  and  C_16 
ROOT
HETATM    1  C   UNK     0      18.972 -24.176 -28.763  0.00  0.00     0.146 C 
HETATM    2  C   UNK     0      17.638 -23.421 -28.922  0.00  0.00     0.148 C 
HETATM    3  C   UNK     0      20.171 -23.255 -29.067  0.00  0.00     0.170 C 
HETATM    4  C   UNK     0      17.591 -22.194 -27.996  0.00  0.00     0.079 C 
HETATM    5  C   UNK     0      20.020 -21.863 -28.520  0.00  0.00     0.021 C 
HETATM    6  C   UNK     0      18.861 -21.399 -28.032  0.00  0.00     0.020 C 
ENDROOT
BRANCH   3   7
HETATM    7  O   UNK     0      21.339 -23.852 -28.499  0.00  0.00    -0.375 OA
BRANCH   7   8
HETATM    8  C   UNK     0      22.387 -23.939 -29.451  0.00  0.00     0.121 C 
BRANCH   8   9
HETATM    9  C   UNK     0      22.917 -25.378 -29.459  0.00  0.00     0.027 C 
HETATM   10  C   UNK     0      22.708 -26.064 -30.803  0.00  0.00     0.007 C 
ENDBRANCH   8   9
BRANCH   8  11
HETATM   11  C   UNK     0      23.503 -22.952 -29.090  0.00  0.00     0.027 C 
HETATM   12  C   UNK     0      24.890 -23.476 -29.434  0.00  0.00     0.007 C 
ENDBRANCH   8  11
ENDBRANCH   7   8
ENDBRANCH   3   7
BRANCH   1  13
HETATM   13  N   UNK     0      19.016 -25.339 -29.626  0.00  0.00    -0.351 N 
HETATM   14  C   UNK     0      19.428 -26.585 -29.190  0.00  0.00     0.214 C 
HETATM   15  O   UNK     0      19.800 -26.867 -28.055  0.00  0.00    -0.274 OA
HETATM   16  C   UNK     0      19.355 -27.620 -30.282  0.00  0.00     0.117 C 
HETATM   17  H   UNK     0      18.785 -25.214 -30.607  0.00  0.00     0.163 HD
ENDBRANCH   1  13
BRANCH   2  18
HETATM   18  O01 UNK     0      16.524 -24.268 -28.626  0.00  0.00    -0.393 OA
HETATM   19  H01 UNK     0      16.697 -25.152 -28.956  0.00  0.00     0.210 HD
ENDBRANCH   2  18
BRANCH   6  20
HETATM   20  C   UNK     0      18.838 -20.025 -27.522  0.00  0.00     0.205 C 
HETATM   21  O   UNK     0      20.074 -19.674 -27.113  0.00  0.00    -0.644 OA
HETATM   22  O   UNK     0      17.845 -19.322 -27.481  0.00  0.00    -0.644 OA
ENDBRANCH   6  20
TORSDOF 7
ENDMDL
MODEL 11
REMARK VINA RESULT:      -5.2     18.429     20.180
REMARK  7 active torsions:
REMARK  status: ('A' for Active; 'I' for Inactive)
REMARK    1  A    between atoms: O01_1  and  C_9 
REMARK    2  A    between atoms: O_3  and  C_10 
REMARK    3  A    between atoms: O_3  and  C_14 
REMARK    4  A    between atoms: N_7  and  C_8 
REMARK       I    between atoms: N_7  and  C_18 
REMARK    5  A    between atoms: C_13  and  C_17 
REMARK    6  A    between atoms: C_14  and  C_15 
REMARK    7  A    between atoms: C_14  and  C_16 
ROOT
HETATM    1  C   UNK     0      18.310  -2.657 -29.852  0.00  0.00     0.146 C 
HETATM    2  C   UNK     0      18.744  -3.512 -28.645  0.00  0.00     0.148 C 
HETATM    3  C   UNK     0      19.098  -3.045 -31.119  0.00  0.00     0.170 C 
HETATM    4  C   UNK     0      18.543  -5.009 -28.936  0.00  0.00     0.079 C 
HETATM    5  C   UNK     0      19.303  -4.527 -31.275  0.00  0.00     0.021 C 
HETATM    6  C   UNK     0      19.041  -5.401 -30.294  0.00  0.00     0.020 C 
ENDROOT
BRANCH   3   7
HETATM    7  O   UNK     0      18.379  -2.555 -32.252  0.00  0.00    -0.375 OA
BRANCH   7   8
HETATM    8  C   UNK     0      19.047  -2.873 -33.463  0.00  0.00     0.121 C 
BRANCH   8   9
HETATM    9  C   UNK     0      19.851  -1.647 -33.911  0.00  0.00     0.027 C 
HETATM   10  C   UNK     0      21.282  -2.003 -34.292  0.00  0.00     0.007 C 
ENDBRANCH   8   9
BRANCH   8  11
HETATM   11  C   UNK     0      18.024  -3.272 -34.533  0.00  0.00     0.027 C 
HETATM   12  C   UNK     0      17.250  -2.082 -35.084  0.00  0.00     0.007 C 
ENDBRANCH   8  11
ENDBRANCH   7   8
ENDBRANCH   3   7
BRANCH   1  13
HETATM   13  N   UNK     0      18.487  -1.245 -29.578  0.00  0.00    -0.351 N 
HETATM   14  C   UNK     0      17.512  -0.465 -28.984  0.00  0.00     0.214 C 
HETATM   15  O   UNK     0      16.403  -0.847 -28.621  0.00  0.00    -0.274 OA
HETATM   16  C   UNK     0      17.963   0.959 -28.795  0.00  0.00     0.117 C 
HETATM   17  H   UNK     0      19.347  -0.804 -29.888  0.00  0.00     0.163 HD
ENDBRANCH   1  13
BRANCH   2  18
HETATM   18  O01 UNK     0      18.003  -3.165 -27.472  0.00  0.00    -0.393 OA
HETATM   19  H01 UNK     0      18.424  -3.552 -26.701  0.00  0.00     0.210 HD
ENDBRANCH   2  18
BRANCH   6  20
HETATM   20  C   UNK     0      19.276  -6.822 -30.567  0.00  0.00     0.205 C 
HETATM   21  O   UNK     0      19.718  -7.431 -29.448  0.00  0.00    -0.644 OA
HETATM   22  O   UNK     0      19.094  -7.355 -31.647  0.00  0.00    -0.644 OA
ENDBRANCH   6  20
TORSDOF 7
ENDMDL
MODEL 12
REMARK VINA RESULT:      -5.2     18.408     19.728
REMARK  7 active torsions:
REMARK  status: ('A' for Active; 'I' for Inactive)
REMARK    1  A    between atoms: O01_1  and  C_9 
REMARK    2  A    between atoms: O_3  and  C_10 
REMARK    3  A    between atoms: O_3  and  C_14 
REMARK    4  A    between atoms: N_7  and  C_8 
REMARK       I    between atoms: N_7  and  C_18 
REMARK    5  A    between atoms: C_13  and  C_17 
REMARK    6  A    between atoms: C_14  and  C_15 
REMARK    7  A    between atoms: C_14  and  C_16 
ROOT
HETATM    1  C   UNK     0      19.065  -3.466 -29.754  0.00  0.00     0.146 C 
HETATM    2  C   UNK     0      17.864  -3.146 -28.844  0.00  0.00     0.148 C 
HETATM    3  C   UNK     0      19.561  -2.201 -30.484  0.00  0.00     0.170 C 
HETATM    4  C   UNK     0      18.233  -2.069 -27.811  0.00  0.00     0.079 C 
HETATM    5  C   UNK     0      19.571  -0.969 -29.623  0.00  0.00     0.021 C 
HETATM    6  C   UNK     0      18.981  -0.922 -28.420  0.00  0.00     0.020 C 
ENDROOT
BRANCH   3   7
HETATM    7  O   UNK     0      20.889  -2.453 -30.948  0.00  0.00    -0.375 OA
BRANCH   7   8
HETATM    8  C   UNK     0      21.040  -2.076 -32.307  0.00  0.00     0.121 C 
BRANCH   8   9
HETATM    9  C   UNK     0      21.240  -3.344 -33.145  0.00  0.00     0.027 C 
HETATM   10  C   UNK     0      20.044  -3.641 -34.039  0.00  0.00     0.007 C 
ENDBRANCH   8   9
BRANCH   8  11
HETATM   11  C   UNK     0      22.239  -1.132 -32.456  0.00  0.00     0.027 C 
HETATM   12  C   UNK     0      23.080  -1.040 -31.190  0.00  0.00     0.007 C 
ENDBRANCH   8  11
ENDBRANCH   7   8
ENDBRANCH   3   7
BRANCH   1  13
HETATM   13  N   UNK     0      18.725  -4.489 -30.723  0.00  0.00    -0.351 N 
HETATM   14  C   UNK     0      19.453  -5.655 -30.873  0.00  0.00     0.214 C 
HETATM   15  O   UNK     0      20.451  -5.972 -30.232  0.00  0.00    -0.274 OA
HETATM   16  C   UNK     0      18.870  -6.554 -31.931  0.00  0.00     0.117 C 
HETATM   17  H   UNK     0      17.948  -4.310 -31.352  0.00  0.00     0.163 HD
ENDBRANCH   1  13
BRANCH   2  18
HETATM   18  O01 UNK     0      17.411  -4.314 -28.153  0.00  0.00    -0.393 OA
HETATM   19  H01 UNK     0      16.933  -4.053 -27.363  0.00  0.00     0.210 HD
ENDBRANCH   2  18
BRANCH   6  20
HETATM   20  C   UNK     0      19.063   0.335 -27.670  0.00  0.00     0.205 C 
HETATM   21  O   UNK     0      19.870   1.198 -28.319  0.00  0.00    -0.644 OA
HETATM   22  O   UNK     0      18.482   0.550 -26.621  0.00  0.00    -0.644 OA
ENDBRANCH   6  20
TORSDOF 7
ENDMDL
MODEL 13
REMARK VINA RESULT:      -5.1      7.413      9.982
REMARK  7 active torsions:
REMARK  status: ('A' for Active; 'I' for Inactive)
REMARK    1  A    between atoms: O01_1  and  C_9 
REMARK    2  A    between atoms: O_3  and  C_10 
REMARK    3  A    between atoms: O_3  and  C_14 
REMARK    4  A    between atoms: N_7  and  C_8 
REMARK       I    between atoms: N_7  and  C_18 
REMARK    5  A    between atoms: C_13  and  C_17 
REMARK    6  A    between atoms: C_14  and  C_15 
REMARK    7  A    between atoms: C_14  and  C_16 
ROOT
HETATM    1  C   UNK     0      20.065 -25.469 -29.232  0.00  0.00     0.146 C 
HETATM    2  C   UNK     0      19.239 -24.172 -29.328  0.00  0.00     0.148 C 
HETATM    3  C   UNK     0      21.574 -25.176 -29.359  0.00  0.00     0.170 C 
HETATM    4  C   UNK     0      19.661 -23.174 -28.238  0.00  0.00     0.079 C 
HETATM    5  C   UNK     0      22.016 -23.941 -28.624  0.00  0.00     0.021 C 
HETATM    6  C   UNK     0      21.150 -23.054 -28.116  0.00  0.00     0.020 C 
ENDROOT
BRANCH   3   7
HETATM    7  O   UNK     0      22.285 -26.303 -28.843  0.00  0.00    -0.375 OA
BRANCH   7   8
HETATM    8  C   UNK     0      23.140 -26.867 -29.825  0.00  0.00     0.121 C 
BRANCH   8   9
HETATM    9  C   UNK     0      23.418 -28.326 -29.447  0.00  0.00     0.027 C 
HETATM   10  C   UNK     0      22.288 -28.937 -28.628  0.00  0.00     0.007 C 
ENDBRANCH   8   9
BRANCH   8  11
HETATM   11  C   UNK     0      24.447 -26.068 -29.900  0.00  0.00     0.027 C 
HETATM   12  C   UNK     0      25.640 -26.833 -29.345  0.00  0.00     0.007 C 
ENDBRANCH   8  11
ENDBRANCH   7   8
ENDBRANCH   3   7
BRANCH   1  13
HETATM   13  N   UNK     0      19.663 -26.418 -30.252  0.00  0.00    -0.351 N 
HETATM   14  C   UNK     0      19.091 -27.641 -29.957  0.00  0.00     0.214 C 
HETATM   15  O   UNK     0      18.854 -28.077 -28.834  0.00  0.00    -0.274 OA
HETATM   16  C   UNK     0      18.748 -28.419 -31.200  0.00  0.00     0.117 C 
HETATM   17  H   UNK     0      19.863 -26.189 -31.221  0.00  0.00     0.163 HD
ENDBRANCH   1  13
BRANCH   2  18
HETATM   18  O01 UNK     0      17.840 -24.438 -29.195  0.00  0.00    -0.393 OA
HETATM   19  H01 UNK     0      17.598 -24.423 -28.267  0.00  0.00     0.210 HD
ENDBRANCH   2  18
BRANCH   6  20
HETATM   20  C   UNK     0      21.701 -21.890 -27.414  0.00  0.00     0.205 C 
HETATM   21  O   UNK     0      20.770 -21.379 -26.584  0.00  0.00    -0.644 OA
HETATM   22  O   UNK     0      22.831 -21.463 -27.570  0.00  0.00    -0.644 OA
ENDBRANCH   6  20
TORSDOF 7
ENDMDL
MODEL 14
REMARK VINA RESULT:      -5.1     21.985     23.444
REMARK  7 active torsions:
REMARK  status: ('A' for Active; 'I' for Inactive)
REMARK    1  A    between atoms: O01_1  and  C_9 
REMARK    2  A    between atoms: O_3  and  C_10 
REMARK    3  A    between atoms: O_3  and  C_14 
REMARK    4  A    between atoms: N_7  and  C_8 
REMARK       I    between atoms: N_7  and  C_18 
REMARK    5  A    between atoms: C_13  and  C_17 
REMARK    6  A    between atoms: C_14  and  C_15 
REMARK    7  A    between atoms: C_14  and  C_16 
ROOT
HETATM    1  C   UNK     0       6.102 -24.997 -33.820  0.00  0.00     0.146 C 
HETATM    2  C   UNK     0       5.839 -25.952 -32.640  0.00  0.00     0.148 C 
HETATM    3  C   UNK     0       4.814 -24.256 -34.233  0.00  0.00     0.170 C 
HETATM    4  C   UNK     0       5.279 -25.183 -31.431  0.00  0.00     0.079 C 
HETATM    5  C   UNK     0       3.974 -23.807 -33.070  0.00  0.00     0.021 C 
HETATM    6  C   UNK     0       4.196 -24.221 -31.815  0.00  0.00     0.020 C 
ENDROOT
BRANCH   3   7
HETATM    7  O   UNK     0       5.192 -23.112 -35.001  0.00  0.00    -0.375 OA
BRANCH   7   8
HETATM    8  C   UNK     0       4.462 -23.043 -36.215  0.00  0.00     0.121 C 
BRANCH   8   9
HETATM    9  C   UNK     0       5.457 -22.899 -37.373  0.00  0.00     0.027 C 
HETATM   10  C   UNK     0       6.757 -22.234 -36.940  0.00  0.00     0.007 C 
ENDBRANCH   8   9
BRANCH   8  11
HETATM   11  C   UNK     0       3.498 -21.851 -36.178  0.00  0.00     0.027 C 
HETATM   12  C   UNK     0       2.060 -22.262 -35.895  0.00  0.00     0.007 C 
ENDBRANCH   8  11
ENDBRANCH   7   8
ENDBRANCH   3   7
BRANCH   1  13
HETATM   13  N   UNK     0       6.640 -25.715 -34.959  0.00  0.00    -0.351 N 
HETATM   14  C   UNK     0       7.912 -25.495 -35.455  0.00  0.00     0.214 C 
HETATM   15  O   UNK     0       8.729 -24.690 -35.018  0.00  0.00    -0.274 OA
HETATM   16  C   UNK     0       8.226 -26.390 -36.625  0.00  0.00     0.117 C 
HETATM   17  H   UNK     0       6.031 -26.369 -35.441  0.00  0.00     0.163 HD
ENDBRANCH   1  13
BRANCH   2  18
HETATM   18  O01 UNK     0       7.034 -26.629 -32.244  0.00  0.00    -0.393 OA
HETATM   19  H01 UNK     0       7.232 -26.422 -31.329  0.00  0.00     0.210 HD
ENDBRANCH   2  18
BRANCH   6  20
HETATM   20  C   UNK     0       3.313 -23.709 -30.763  0.00  0.00     0.205 C 
HETATM   21  O   UNK     0       4.047 -23.348 -29.691  0.00  0.00    -0.644 OA
HETATM   22  O   UNK     0       2.101 -23.630 -30.859  0.00  0.00    -0.644 OA
ENDBRANCH   6  20
TORSDOF 7
ENDMDL
MODEL 15
REMARK VINA RESULT:      -5.0     21.837     22.662
REMARK  7 active torsions:
REMARK  status: ('A' for Active; 'I' for Inactive)
REMARK    1  A    between atoms: O01_1  and  C_9 
REMARK    2  A    between atoms: O_3  and  C_10 
REMARK    3  A    between atoms: O_3  and  C_14 
REMARK    4  A    between atoms: N_7  and  C_8 
REMARK       I    between atoms: N_7  and  C_18 
REMARK    5  A    between atoms: C_13  and  C_17 
REMARK    6  A    between atoms: C_14  and  C_15 
REMARK    7  A    between atoms: C_14  and  C_16 
ROOT
HETATM    1  C   UNK     0       6.762 -23.445 -35.752  0.00  0.00     0.146 C 
HETATM    2  C   UNK     0       6.291 -22.198 -36.523  0.00  0.00     0.148 C 
HETATM    3  C   UNK     0       7.722 -24.297 -36.607  0.00  0.00     0.170 C 
HETATM    4  C   UNK     0       7.491 -21.339 -36.956  0.00  0.00     0.079 C 
HETATM    5  C   UNK     0       8.704 -23.486 -37.406  0.00  0.00     0.021 C 
HETATM    6  C   UNK     0       8.598 -22.157 -37.548  0.00  0.00     0.020 C 
ENDROOT
BRANCH   3   7
HETATM    7  O   UNK     0       8.443 -25.164 -35.729  0.00  0.00    -0.375 OA
BRANCH   7   8
HETATM    8  C   UNK     0       8.549 -26.471 -36.268  0.00  0.00     0.121 C 
BRANCH   8   9
HETATM    9  C   UNK     0       7.602 -27.395 -35.494  0.00  0.00     0.027 C 
HETATM   10  C   UNK     0       7.975 -27.503 -34.021  0.00  0.00     0.007 C 
ENDBRANCH   8   9
BRANCH   8  11
HETATM   11  C   UNK     0       9.997 -26.964 -36.160  0.00  0.00     0.027 C 
HETATM   12  C   UNK     0      10.871 -26.489 -37.312  0.00  0.00     0.007 C 
ENDBRANCH   8  11
ENDBRANCH   7   8
ENDBRANCH   3   7
BRANCH   1  13
HETATM   13  N   UNK     0       5.634 -24.252 -35.331  0.00  0.00    -0.351 N 
HETATM   14  C   UNK     0       5.472 -24.703 -34.034  0.00  0.00     0.214 C 
HETATM   15  O   UNK     0       6.234 -24.490 -33.095  0.00  0.00    -0.274 OA
HETATM   16  C   UNK     0       4.205 -25.498 -33.865  0.00  0.00     0.117 C 
HETATM   17  H   UNK     0       4.965 -24.541 -36.038  0.00  0.00     0.163 HD
ENDBRANCH   1  13
BRANCH   2  18
HETATM   18  O01 UNK     0       5.413 -21.397 -35.727  0.00  0.00    -0.393 OA
HETATM   19  H01 UNK     0       4.693 -21.940 -35.399  0.00  0.00     0.210 HD
ENDBRANCH   2  18
BRANCH   6  20
HETATM   20  C   UNK     0       9.621 -21.474 -38.346  0.00  0.00     0.205 C 
HETATM   21  O   UNK     0       9.486 -20.140 -38.208  0.00  0.00    -0.644 OA
HETATM   22  O   UNK     0      10.457 -22.042 -39.026  0.00  0.00    -0.644 OA
ENDBRANCH   6  20
TORSDOF 7
ENDMDL
MODEL 16
REMARK VINA RESULT:      -5.0      2.983      4.705
REMARK  7 active torsions:
REMARK  status: ('A' for Active; 'I' for Inactive)
REMARK    1  A    between atoms: O01_1  and  C_9 
REMARK    2  A    between atoms: O_3  and  C_10 
REMARK    3  A    between atoms: O_3  and  C_14 
REMARK    4  A    between atoms: N_7  and  C_8 
REMARK       I    between atoms: N_7  and  C_18 
REMARK    5  A    between atoms: C_13  and  C_17 
REMARK    6  A    between atoms: C_14  and  C_15 
REMARK    7  A    between atoms: C_14  and  C_16 
ROOT
HETATM    1  C   UNK     0      23.257 -20.308 -25.090  0.00  0.00     0.146 C 
HETATM    2  C   UNK     0      22.846 -20.010 -23.636  0.00  0.00     0.148 C 
HETATM    3  C   UNK     0      24.775 -20.116 -25.289  0.00  0.00     0.170 C 
HETATM    4  C   UNK     0      23.611 -20.915 -22.655  0.00  0.00     0.079 C 
HETATM    5  C   UNK     0      25.605 -20.632 -24.146  0.00  0.00     0.021 C 
HETATM    6  C   UNK     0      25.073 -20.997 -22.972  0.00  0.00     0.020 C 
ENDROOT
BRANCH   3   7
HETATM    7  O   UNK     0      25.152 -20.803 -26.483  0.00  0.00    -0.375 OA
BRANCH   7   8
HETATM    8  C   UNK     0      25.882 -19.955 -27.356  0.00  0.00     0.121 C 
BRANCH   8   9
HETATM    9  C   UNK     0      24.985 -19.593 -28.545  0.00  0.00     0.027 C 
HETATM   10  C   UNK     0      24.141 -20.771 -29.013  0.00  0.00     0.007 C 
ENDBRANCH   8   9
BRANCH   8  11
HETATM   11  C   UNK     0      27.154 -20.667 -27.833  0.00  0.00     0.027 C 
HETATM   12  C   UNK     0      27.435 -21.951 -27.065  0.00  0.00     0.007 C 
ENDBRANCH   8  11
ENDBRANCH   7   8
ENDBRANCH   3   7
BRANCH   1  13
HETATM   13  N   UNK     0      22.532 -19.464 -26.019  0.00  0.00    -0.351 N 
HETATM   14  C   UNK     0      21.343 -19.847 -26.612  0.00  0.00     0.214 C 
HETATM   15  O   UNK     0      20.761 -20.914 -26.442  0.00  0.00    -0.274 OA
HETATM   16  C   UNK     0      20.789 -18.775 -27.513  0.00  0.00     0.117 C 
HETATM   17  H   UNK     0      22.948 -18.576 -26.281  0.00  0.00     0.163 HD
ENDBRANCH   1  13
BRANCH   2  18
HETATM   18  O01 UNK     0      21.442 -20.202 -23.444  0.00  0.00    -0.393 OA
HETATM   19  H01 UNK     0      21.249 -20.242 -22.505  0.00  0.00     0.210 HD
ENDBRANCH   2  18
BRANCH   6  20
HETATM   20  C   UNK     0      25.985 -21.490 -21.935  0.00  0.00     0.205 C 
HETATM   21  O   UNK     0      25.304 -21.679 -20.787  0.00  0.00    -0.644 OA
HETATM   22  O   UNK     0      27.174 -21.693 -22.103  0.00  0.00    -0.644 OA
ENDBRANCH   6  20
TORSDOF 7
ENDMDL
MODEL 17
REMARK VINA RESULT:      -4.9     18.605     20.204
REMARK  7 active torsions:
REMARK  status: ('A' for Active; 'I' for Inactive)
REMARK    1  A    between atoms: O01_1  and  C_9 
REMARK    2  A    between atoms: O_3  and  C_10 
REMARK    3  A    between atoms: O_3  and  C_14 
REMARK    4  A    between atoms: N_7  and  C_8 
REMARK       I    between atoms: N_7  and  C_18 
REMARK    5  A    between atoms: C_13  and  C_17 
REMARK    6  A    between atoms: C_14  and  C_15 
REMARK    7  A    between atoms: C_14  and  C_16 
ROOT
HETATM    1  C   UNK     0      19.205  -3.520 -33.820  0.00  0.00     0.146 C 
HETATM    2  C   UNK     0      19.705  -4.719 -34.647  0.00  0.00     0.148 C 
HETATM    3  C   UNK     0      18.414  -3.990 -32.582  0.00  0.00     0.170 C 
HETATM    4  C   UNK     0      20.590  -5.642 -33.792  0.00  0.00     0.079 C 
HETATM    5  C   UNK     0      19.016  -5.185 -31.896  0.00  0.00     0.021 C 
HETATM    6  C   UNK     0      19.999  -5.914 -32.443  0.00  0.00     0.020 C 
ENDROOT
BRANCH   3   7
HETATM    7  O   UNK     0      18.358  -2.904 -31.656  0.00  0.00    -0.375 OA
BRANCH   7   8
HETATM    8  C   UNK     0      19.355  -3.029 -30.655  0.00  0.00     0.121 C 
BRANCH   8   9
HETATM    9  C   UNK     0      18.695  -2.838 -29.284  0.00  0.00     0.027 C 
HETATM   10  C   UNK     0      19.072  -1.511 -28.640  0.00  0.00     0.007 C 
ENDBRANCH   8   9
BRANCH   8  11
HETATM   11  C   UNK     0      20.454  -1.983 -30.878  0.00  0.00     0.027 C 
HETATM   12  C   UNK     0      21.776  -2.598 -31.314  0.00  0.00     0.007 C 
ENDBRANCH   8  11
ENDBRANCH   7   8
ENDBRANCH   3   7
BRANCH   1  13
HETATM   13  N   UNK     0      18.379  -2.642 -34.624  0.00  0.00    -0.351 N 
HETATM   14  C   UNK     0      18.585  -1.276 -34.701  0.00  0.00     0.214 C 
HETATM   15  O   UNK     0      19.462  -0.644 -34.120  0.00  0.00    -0.274 OA
HETATM   16  C   UNK     0      17.602  -0.607 -35.624  0.00  0.00     0.117 C 
HETATM   17  H   UNK     0      17.583  -3.046 -35.107  0.00  0.00     0.163 HD
ENDBRANCH   1  13
BRANCH   2  18
HETATM   18  O01 UNK     0      20.453  -4.287 -35.787  0.00  0.00    -0.393 OA
HETATM   19  H01 UNK     0      21.391  -4.380 -35.609  0.00  0.00     0.210 HD
ENDBRANCH   2  18
BRANCH   6  20
HETATM   20  C   UNK     0      20.509  -7.054 -31.675  0.00  0.00     0.205 C 
HETATM   21  O   UNK     0      21.773  -7.327 -32.056  0.00  0.00    -0.644 OA
HETATM   22  O   UNK     0      19.874  -7.652 -30.825  0.00  0.00    -0.644 OA
ENDBRANCH   6  20
TORSDOF 7
ENDMDL
MODEL 18
REMARK VINA RESULT:      -4.8     22.560     24.467
REMARK  7 active torsions:
REMARK  status: ('A' for Active; 'I' for Inactive)
REMARK    1  A    between atoms: O01_1  and  C_9 
REMARK    2  A    between atoms: O_3  and  C_10 
REMARK    3  A    between atoms: O_3  and  C_14 
REMARK    4  A    between atoms: N_7  and  C_8 
REMARK       I    between atoms: N_7  and  C_18 
REMARK    5  A    between atoms: C_13  and  C_17 
REMARK    6  A    between atoms: C_14  and  C_15 
REMARK    7  A    between atoms: C_14  and  C_16 
ROOT
HETATM    1  C   UNK     0      37.116 -32.856  -5.933  0.00  0.00     0.146 C 
HETATM    2  C   UNK     0      37.618 -32.725  -4.482  0.00  0.00     0.148 C 
HETATM    3  C   UNK     0      35.826 -33.698  -6.001  0.00  0.00     0.170 C 
HETATM    4  C   UNK     0      36.541 -32.087  -3.588  0.00  0.00     0.079 C 
HETATM    5  C   UNK     0      34.856 -33.411  -4.888  0.00  0.00     0.021 C 
HETATM    6  C   UNK     0      35.183 -32.679  -3.814  0.00  0.00     0.020 C 
ENDROOT
BRANCH   3   7
HETATM    7  O   UNK     0      35.190 -33.428  -7.251  0.00  0.00    -0.375 OA
BRANCH   7   8
HETATM    8  C   UNK     0      35.163 -34.582  -8.075  0.00  0.00     0.121 C 
BRANCH   8   9
HETATM    9  C   UNK     0      35.162 -34.133  -9.541  0.00  0.00     0.027 C 
HETATM   10  C   UNK     0      35.136 -35.311 -10.507  0.00  0.00     0.007 C 
ENDBRANCH   8   9
BRANCH   8  11
HETATM   11  C   UNK     0      33.915 -35.417  -7.763  0.00  0.00     0.027 C 
HETATM   12  C   UNK     0      34.250 -36.801  -7.224  0.00  0.00     0.007 C 
ENDBRANCH   8  11
ENDBRANCH   7   8
ENDBRANCH   3   7
BRANCH   1  13
HETATM   13  N   UNK     0      38.132 -33.447  -6.782  0.00  0.00    -0.351 N 
HETATM   14  C   UNK     0      38.941 -32.701  -7.619  0.00  0.00     0.214 C 
HETATM   15  O   UNK     0      38.911 -31.481  -7.754  0.00  0.00    -0.274 OA
HETATM   16  C   UNK     0      39.924 -33.559  -8.370  0.00  0.00     0.117 C 
HETATM   17  H   UNK     0      38.210 -34.459  -6.797  0.00  0.00     0.163 HD
ENDBRANCH   1  13
BRANCH   2  18
HETATM   18  O01 UNK     0      38.805 -31.931  -4.414  0.00  0.00    -0.393 OA
HETATM   19  H01 UNK     0      39.444 -32.359  -3.840  0.00  0.00     0.210 HD
ENDBRANCH   2  18
BRANCH   6  20
HETATM   20  C   UNK     0      34.150 -32.463  -2.797  0.00  0.00     0.205 C 
HETATM   21  O   UNK     0      34.613 -31.619  -1.854  0.00  0.00    -0.644 OA
HETATM   22  O   UNK     0      33.046 -32.977  -2.817  0.00  0.00    -0.644 OA
ENDBRANCH   6  20
TORSDOF 7
ENDMDL
MODEL 19
REMARK VINA RESULT:      -4.8     27.848     29.762
REMARK  7 active torsions:
REMARK  status: ('A' for Active; 'I' for Inactive)
REMARK    1  A    between atoms: O01_1  and  C_9 
REMARK    2  A    between atoms: O_3  and  C_10 
REMARK    3  A    between atoms: O_3  and  C_14 
REMARK    4  A    between atoms: N_7  and  C_8 
REMARK       I    between atoms: N_7  and  C_18 
REMARK    5  A    between atoms: C_13  and  C_17 
REMARK    6  A    between atoms: C_14  and  C_15 
REMARK    7  A    between atoms: C_14  and  C_16 
ROOT
HETATM    1  C   UNK     0       8.773  -5.493  -2.074  0.00  0.00     0.146 C 
HETATM    2  C   UNK     0       7.669  -6.484  -2.489  0.00  0.00     0.148 C 
HETATM    3  C   UNK     0       8.594  -5.043  -0.610  0.00  0.00     0.170 C 
HETATM    4  C   UNK     0       7.670  -7.717  -1.569  0.00  0.00     0.079 C 
HETATM    5  C   UNK     0       8.185  -6.152   0.319  0.00  0.00     0.021 C 
HETATM    6  C   UNK     0       7.782  -7.352  -0.121  0.00  0.00     0.020 C 
ENDROOT
BRANCH   3   7
HETATM    7  O   UNK     0       9.837  -4.498  -0.162  0.00  0.00    -0.375 OA
BRANCH   7   8
HETATM    8  C   UNK     0       9.714  -3.116   0.137  0.00  0.00     0.121 C 
BRANCH   8   9
HETATM    9  C   UNK     0      10.950  -2.390  -0.408  0.00  0.00     0.027 C 
HETATM   10  C   UNK     0      12.050  -3.355  -0.830  0.00  0.00     0.007 C 
ENDBRANCH   8   9
BRANCH   8  11
HETATM   11  C   UNK     0       9.594  -2.919   1.653  0.00  0.00     0.027 C 
HETATM   12  C   UNK     0      10.461  -3.888   2.445  0.00  0.00     0.007 C 
ENDBRANCH   8  11
ENDBRANCH   7   8
ENDBRANCH   3   7
BRANCH   1  13
HETATM   13  N   UNK     0       8.784  -4.334  -2.945  0.00  0.00    -0.351 N 
HETATM   14  C   UNK     0       9.855  -4.013  -3.758  0.00  0.00     0.214 C 
HETATM   15  O   UNK     0      10.906  -4.641  -3.851  0.00  0.00    -0.274 OA
HETATM   16  C   UNK     0       9.595  -2.776  -4.575  0.00  0.00     0.117 C 
HETATM   17  H   UNK     0       7.988  -3.705  -2.910  0.00  0.00     0.163 HD
ENDBRANCH   1  13
BRANCH   2  18
HETATM   18  O01 UNK     0       7.841  -6.916  -3.841  0.00  0.00    -0.393 OA
HETATM   19  H01 UNK     0       7.154  -7.546  -4.066  0.00  0.00     0.210 HD
ENDBRANCH   2  18
BRANCH   6  20
HETATM   20  C   UNK     0       7.413  -8.356   0.882  0.00  0.00     0.205 C 
HETATM   21  O   UNK     0       7.426  -7.797   2.109  0.00  0.00    -0.644 OA
HETATM   22  O   UNK     0       7.140  -9.516   0.628  0.00  0.00    -0.644 OA
ENDBRANCH   6  20
TORSDOF 7
ENDMDL
MODEL 20
REMARK VINA RESULT:      -4.7      8.893     11.381
REMARK  7 active torsions:
REMARK  status: ('A' for Active; 'I' for Inactive)
REMARK    1  A    between atoms: O01_1  and  C_9 
REMARK    2  A    between atoms: O_3  and  C_10 
REMARK    3  A    between atoms: O_3  and  C_14 
REMARK    4  A    between atoms: N_7  and  C_8 
REMARK       I    between atoms: N_7  and  C_18 
REMARK    5  A    between atoms: C_13  and  C_17 
REMARK    6  A    between atoms: C_14  and  C_15 
REMARK    7  A    between atoms: C_14  and  C_16 
ROOT
HETATM    1  C   UNK     0      20.294 -27.656 -29.252  0.00  0.00     0.146 C 
HETATM    2  C   UNK     0      19.164 -26.674 -29.612  0.00  0.00     0.148 C 
HETATM    3  C   UNK     0      21.680 -27.019 -29.484  0.00  0.00     0.170 C 
HETATM    4  C   UNK     0      19.279 -25.382 -28.785  0.00  0.00     0.079 C 
HETATM    5  C   UNK     0      21.763 -25.579 -29.057  0.00  0.00     0.021 C 
HETATM    6  C   UNK     0      20.681 -24.856 -28.735  0.00  0.00     0.020 C 
ENDROOT
BRANCH   3   7
HETATM    7  O   UNK     0      22.642 -27.777 -28.749  0.00  0.00    -0.375 OA
BRANCH   7   8
HETATM    8  C   UNK     0      23.664 -28.273 -29.598  0.00  0.00     0.121 C 
BRANCH   8   9
HETATM    9  C   UNK     0      24.001 -29.706 -29.168  0.00  0.00     0.027 C 
HETATM   10  C   UNK     0      23.422 -30.746 -30.119  0.00  0.00     0.007 C 
ENDBRANCH   8   9
BRANCH   8  11
HETATM   11  C   UNK     0      24.903 -27.373 -29.503  0.00  0.00     0.027 C 
HETATM   12  C   UNK     0      26.200 -28.163 -29.402  0.00  0.00     0.007 C 
ENDBRANCH   8  11
ENDBRANCH   7   8
ENDBRANCH   3   7
BRANCH   1  13
HETATM   13  N   UNK     0      20.184 -28.880 -30.022  0.00  0.00    -0.351 N 
HETATM   14  C   UNK     0      20.229 -28.907 -31.403  0.00  0.00     0.214 C 
HETATM   15  O   UNK     0      20.363 -27.935 -32.141  0.00  0.00    -0.274 OA
HETATM   16  C   UNK     0      20.116 -30.307 -31.946  0.00  0.00     0.117 C 
HETATM   17  H   UNK     0      20.013 -29.745 -29.519  0.00  0.00     0.163 HD
ENDBRANCH   1  13
BRANCH   2  18
HETATM   18  O01 UNK     0      17.878 -27.257 -29.384  0.00  0.00    -0.393 OA
HETATM   19  H01 UNK     0      17.663 -27.851 -30.106  0.00  0.00     0.210 HD
ENDBRANCH   2  18
BRANCH   6  20
HETATM   20  C   UNK     0      20.889 -23.464 -28.328  0.00  0.00     0.205 C 
HETATM   21  O   UNK     0      21.616 -23.428 -27.193  0.00  0.00    -0.644 OA
HETATM   22  O   UNK     0      20.463 -22.497 -28.935  0.00  0.00    -0.644 OA
ENDBRANCH   6  20
TORSDOF 7
ENDMDL
